
!²ÄÐÔ
MP, EX,      1,      2.060e+11
MP, NUXY,    1,      3.000e-01
MP, DENS,    1,      7.850e+03

!Áº¸ËË÷
ET,        1, BEAM188


!½ØÃæ

!Áº½ØÃæ
R,     1, 0
SECTYPE,1,BEAM,CTUBE,,0
SECOFFSET,CENT
SECDATA,0.095500,0.101500,8
R,     2, 0
SECTYPE,2,BEAM,CTUBE,,0
SECOFFSET,CENT
SECDATA,0.085000,0.090000,8
R,     3, 0
SECTYPE,3,BEAM,CTUBE,,0
SECOFFSET,CENT
SECDATA,0.084000,0.090000,8
R,     4, 0
SECTYPE,4,BEAM,CTUBE,,0
SECOFFSET,CENT
SECDATA,0.073500,0.079500,8